* C:\users\crossover\Documents\courses\gel2\spice\hw1p1.asc
V1 vr1 0 SINE(0 10 1e3)
R1 vr1 vl1 30
L1 vl1 0 3e-3
.tran 0 5m 0 0.1m
.backanno
.end
